* A simple non-inverting op-amp circuit
* Universal Opamp Macro-Model 
.SUBCKT MYOPAMP 1 2 6
* INPUT IMPEDANCE
RIN 1 2 10MEG
* GAIN BW PRODUCT = 1MHZ
* DC GAIN (100K) AND POLE 1 (10HZ)
EGAIN 3 0 1 2 100K
RP1 3 4 1K
CP1 4 0 15.915UF
* OUTPUT BUFFER AND RESISTANCE
EBUFFER 5 0 4 0 1
ROUT 5 6 10
.ENDS MYOPAMP

* Using the op-amp
Vin 1 0 AC 1
R1 0 2 1K
R2 2 6 10K
X1 1 2 6 MYOPAMP

.ac dec 2 1 1Meg
.probe
.end